Just a couple lines of text.
Hello!
Bye!
New line.